24
 energy: -42.153937204913 gnorm: 0.000412177830 xtb: 6.4.0 (d4b70c2)
C         1.06857576156087    0.05228385097530   -0.07555872665194
N         2.50289413070926    0.03372680730838   -0.07545151965101
C         3.35343472497225    1.07448721560947   -0.07744077987017
N         4.62128616267304    0.72044753166563   -0.07700666232945
C         4.59669112583773   -0.63039023750840   -0.07455938709407
C         3.28944811547687   -1.09510376945136   -0.07354946996451
C         2.96268934719285   -2.48854798719827   -0.07033824915045
O         1.84931321317302   -2.97819704699138   -0.06922873370163
N         4.12159535383810   -3.27050133565490   -0.06833352257065
C         5.44245411546291   -2.83895262440477   -0.06993731129253
O         6.35774580181700   -3.63259037504720   -0.06847989730419
N         5.66003312633244   -1.47680464290159   -0.07321695836330
C         7.00859393325077   -0.95398211925929   -0.07489564107110
C         3.95392070459291   -4.71486485907612   -0.06421289705398
H         0.72070440695573    1.08353194956204   -0.07569363664245
H         0.68937841960711   -0.46619127400822    0.80623939965946
H         0.68942871123026   -0.46632017605083   -0.95732644371205
H         3.02732911115192    2.09550457864748   -0.07913973569164
H         7.69283280839481   -1.79987567782534   -0.07534065596721
H         7.16512413825533   -0.33930551946774    0.81116494987627
H         7.16294884466652   -0.33992107924140   -0.96174195280993
H         2.88625547947674   -4.92145346466725   -0.06264416205098
H         4.42621942376326   -5.13894228122790    0.82139545898347
H         4.42450197749302   -5.14394097976224   -0.94832362753215