9
Coordinates from ORCA-job orca_MEP E -394.178771700934
  I       1.942155     -0.091330     -1.088147
  C      -0.151375      0.283385     -1.539535
  H      -0.646080     -0.684738     -1.576436
  H      -0.548791      0.891670     -0.731763
  H      -0.156175      0.789367     -2.500786
  N      -0.095441     -0.299095      1.576448
  H      -0.276803      0.628869      1.942536
  H       0.767661     -0.615450      2.004119
  H      -0.835151     -0.902677      1.913564
