9
Coordinates from ORCA-job orca_MEP E -394.224362976962
  I       3.055618      0.004959     -0.993491
  C      -0.574288      0.115292     -0.604444
  H      -0.945952     -0.821028     -1.019128
  H      -1.334558      0.893252     -0.650000
  H       0.325667      0.421630     -1.139601
  N      -0.203053     -0.112396      0.834307
  H      -0.293493      0.741309      1.387002
  H       0.772137     -0.426970      0.916760
  H      -0.802078     -0.816048      1.268596
