15
Coordinates from ORCA-job orca_MEP E -23.377645707280
  C       0.005030      0.004920     -1.221761
  C      -0.754050     -0.137730      0.061228
  C       0.737567      0.107647      0.079146
  H      -1.086042     -1.149124      0.280037
  H       1.032579      1.119279      0.348810
  C       1.718696     -0.952816      0.527096
  H       1.592455     -1.166541      1.588937
  H       1.577238     -1.876047     -0.033955
  H       2.737461     -0.599089      0.364114
  C      -1.709711      0.949435      0.513187
  H      -2.385304      1.226559     -0.297422
  H      -2.304189      0.596766      1.355178
  H      -1.167549      1.843154      0.821834
  Cl      0.199625     -1.426184     -2.212731
  Cl     -0.193805      1.459772     -2.173700
15
Coordinates from ORCA-job orca_MEP E -23.331316865850
  C      -0.084359     -0.245726     -1.127619
  C      -1.012796     -0.138910      0.021488
  C       0.567667     -0.071996      0.179551
  H      -1.708821     -0.971850     -0.010192
  H       0.725308      0.973597      0.441978
  C       1.919810     -0.787482      0.377970
  H       2.005041     -1.465967      1.220062
  H       2.198537     -1.322354     -0.535587
  H       2.677402     -0.002669      0.493310
  C      -1.739310      1.066700      0.605689
  H      -1.658386      1.986077      0.026711
  H      -2.799134      0.833712      0.734819
  H      -1.328449      1.245600      1.598950
  Cl     -0.074332     -1.959909     -1.618238
  Cl      0.311822      0.861174     -2.408891
15
Coordinates from ORCA-job orca_MEP E -23.326420523710
  C      -0.388529     -0.678351     -0.352209
  C      -1.527905      0.026350     -0.377502
  C       0.887983     -0.007147     -0.064605
  H      -2.289590     -0.208525     -1.110140
  H       0.726552      0.781678      0.692318
  C       2.235851     -0.655932      0.161090
  H       2.306023     -1.331914      1.015666
  H       2.497799     -1.197833     -0.742142
  H       2.961809      0.146951      0.307512
  C      -1.914190      1.058407      0.640438
  H      -1.927181      2.087106      0.279871
  H      -2.930777      0.801191      0.949024
  H      -1.273201      0.996744      1.520810
  Cl     -0.303273     -2.289852     -0.968319
  Cl      0.938629      0.471127     -1.951811
15
Coordinates from ORCA-job orca_MEP E -23.258934616160
  C      -0.135235     -0.417022     -0.655865
  C      -1.428200      0.169735     -0.460529
  C       0.871236     -0.079561      0.303682
  H      -2.154186     -0.025379     -1.243521
  H       0.662591      0.638179      1.085682
  C       2.247473     -0.612616      0.206056
  H       2.423644     -1.343822      1.002798
  H       2.406744     -1.106081     -0.752620
  H       2.983570      0.183737      0.339890
  C      -1.903146      1.023065      0.652792
  H      -1.949456      2.068023      0.324478
  H      -2.922762      0.734855      0.919458
  H      -1.279097      0.972096      1.543398
  Cl     -0.299147     -2.267728     -0.844457
  Cl      0.475972      0.062520     -2.421240
15
Coordinates from ORCA-job orca_MEP E -23.267913013460
  C      -0.057349     -0.048982     -0.747876
  C      -1.393400      0.264670     -0.507766
  C       0.897315     -0.020244      0.260029
  H      -2.112061      0.026739     -1.284477
  H       0.630985      0.455036      1.197515
  C       2.249904     -0.593833      0.171671
  H       2.389791     -1.319680      0.978966
  H       2.412158     -1.090113     -0.782518
  H       2.999106      0.186993      0.325816
  C      -1.921510      1.000852      0.660774
  H      -1.976373      2.053854      0.355833
  H      -2.934723      0.690733      0.911872
  H      -1.291226      0.947932      1.546057
  Cl     -0.350153     -2.480758     -0.684346
  Cl      0.457536     -0.073199     -2.401551
15
Coordinates from ORCA-job orca_MEP E -23.294986537320
  C      -0.086140      0.110473     -0.819523
  C      -1.393797      0.364344     -0.565566
  C       0.809006     -0.236333      0.225377
  H      -2.116763      0.140254     -1.339982
  H       0.564528      0.236923      1.186010
  C       2.239112     -0.628007      0.145810
  H       2.420039     -1.336678      0.955052
  H       2.450123     -1.097885     -0.809217
  H       2.924818      0.211191      0.307212
  C      -1.933133      1.016621      0.660339
  H      -2.004129      2.078081      0.403670
  H      -2.935432      0.668575      0.904939
  H      -1.293279      0.929892      1.538315
  Cl     -0.092047     -2.359457     -0.346635
  Cl      0.447096     -0.097992     -2.445800
15
Coordinates from ORCA-job orca_MEP E -23.360662496320
  C      -0.116706      0.098963     -0.853408
  C      -1.377854      0.473016     -0.633874
  C       0.728798     -0.498985      0.218270
  H      -2.075409      0.469026     -1.464007
  H       0.481590     -0.043170      1.184654
  C       2.234036     -0.636007      0.107126
  H       2.532238     -1.324658      0.898587
  H       2.500851     -1.069200     -0.854278
  H       2.776770      0.298476      0.253458
  C      -1.938708      1.023222      0.644624
  H      -2.052563      2.099700      0.488002
  H      -2.925861      0.616307      0.865884
  H      -1.292415      0.878194      1.510359
  Cl      0.091903     -2.221508      0.108925
  Cl      0.433329     -0.163377     -2.474321
15
Coordinates from ORCA-job orca_MEP E -23.374007448840
  C      -0.100112      0.072596     -0.837724
  C      -1.331230      0.557559     -0.704129
  C       0.773962     -0.331453      0.319150
  H      -1.903195      0.791891     -1.596015
  H       0.752586      0.464751      1.072019
  C       2.220414     -0.653472     -0.025396
  H       2.669015     -1.230775      0.781419
  H       2.285518     -1.235558     -0.942912
  H       2.787160      0.269265     -0.153291
  C      -2.038541      0.770028      0.602150
  H      -1.363401      1.152257      1.369560
  H      -2.860789      1.473347      0.473214
  H      -2.449270     -0.177113      0.961163
  Cl      0.030544     -1.765712      1.117786
  Cl      0.527340     -0.157611     -2.436993
